/*--------------------------------*- C++ -*----------------------------------*\
| =========                 |                                                 |
| \\      /  F ield         | OpenFOAM: The Open Source CFD Toolbox           |
|  \\    /   O peration     | Version:  v2306                                 |
|   \\  /    A nd           | Website:  www.openfoam.com                      |
|    \\/     M anipulation  |                                                 |
\*---------------------------------------------------------------------------*/
FoamFile
{
    version     2.0;
    format      ascii;
    class       dictionary;
    object      fvSolution;
}
// * * * * * * * * * * * * * * * * * * * * * * * * * * * * * * * * * * * * * //

solvers
{
    pa
    {
        solver           GAMG;
        tolerance        0;
        relTol           0.0;
        smoother         DICGaussSeidel;
    }

    paFinal
    {
        $p;
        tolerance       0;
        relTol           0;
    }
}

PIMPLE
{
    solvePrimaryRegion	 true;
    nOuterCorrectors   0;
    nCOrrectors         0;
    nNonOrthogonalCorrectors 2;
}


// ************************************************************************* //
