/*--------------------------------*- C++ -*----------------------------------*\
| =========                 |                                                 |
| \\      /  F ield         | OpenFOAM: The Open Source CFD Toolbox           |
|  \\    /   O peration     | Version:  v2206                                 |
|   \\  /    A nd           | Website:  www.openfoam.com                      |
|    \\/     M anipulation  |                                                 |
\*---------------------------------------------------------------------------*/
FoamFile
{
    version     2.0;
    format      ascii;
    class       dictionary;
    object      topoSetDict;
}
// * * * * * * * * * * * * * * * * * * * * * * * * * * * * * * * * * * * * * //

actions
(
    {
        name    dampCells;
        type    cellSet;
        action  new;
        source  sphereToCell;
        centre  (0 0 0);
	radius	180;
	innerRadius 120;
    }

    {
        name    dampCells;
        type    cellZoneSet;
        action  new;
        source  setToCellZone;
        set     dampCells;     // cellSet
    }
);


// ************************************************************************* //
