PDE  1999 01 01 00 00 00.00  750 500 -700 1.0 1.0 test
event name:       test
time shift:       0.0000
half duration:    25
latorUTM:         0.5
longorUTM:        0.5
depth:            0.0395
Mrr:    2.25e+13
Mtt:    2.25e+13
Mpp:    2.25e+13
Mrt:   0.0
Mrp:   0.0
Mtp:   0.0
DATA/Ricker.dat
